/*--------------------------------*- C++ -*----------------------------------*\
| =========                 |                                                 |
| \\      /  F ield         | OpenFOAM: The Open Source CFD Toolbox           |
|  \\    /   O peration     | Version:  v2212                                 |
|   \\  /    A nd           | Website:  www.openfoam.com                      |
|    \\/     M anipulation  |                                                 |
\*---------------------------------------------------------------------------*/
FoamFile
{
    version     2.0;
    format      ascii;
    class       dictionary;
    object      controlDict;
}
// * * * * * * * * * * * * * * * * * * * * * * * * * * * * * * * * * * * * * //

application     pimpleFoam;

startFrom       startTime;

startTime       0;

stopAt          endTime;

endTime         10;

deltaT          0.001;

writeControl    timeStep;

writeInterval   100;

purgeWrite      2;

writeFormat     ascii;

writePrecision  6;

writeCompression off;

timeFormat      general;

timePrecision   6;

runTimeModifiable true;

// Functions for real-time data extraction
functions
{
    // Extract forces and moments on fins
    finForces
    {
        type            forces;
        libs            ("libforces.so");
        patches         (fin1 fin2 fin3 fin4);
        rho             rhoInf;
        rhoInf          1.225;
        CofR            (0 0 0);
        writeControl    timeStep;
        writeInterval   1;
    }
    
    // Extract pressure field
    pressureField
    {
        type            fieldMinMax;
        libs            ("libfieldFunctionObjects.so");
        fields          (p);
        writeControl    timeStep;
        writeInterval   1;
    }
    
    // Extract velocity field
    velocityField
    {
        type            fieldMinMax;
        libs            ("libfieldFunctionObjects.so");
        fields          (U);
        writeControl    timeStep;
        writeInterval   1;
    }
}

// * * * * * * * * * * * * * * * * * * * * * * * * * * * * * * * * * * * * * //
